// Model for testing

// module electrification;

#input "config.csv" -f config -t config
//

// Climate
#input "${WEATHER}" 

//Clock
clock 
{
	timezone ${TIMEZONE};
	starttime ${STARTTIME};
	stoptime ${STOPTIME};
}

module tape
{
    csv_header_type NAME;
}

module residential
{
	implicit_enduses LIGHTS;
	implicit_enduse_source EIA2015;
}

module powerflow;

#for PHASE in A B C
object triplex_meter 
{
    object house:..${NHOUSES_ELECTRIC} 
    {
         thermal_integrity_level ${THERMALINTEGRITYLEVEL};
         floor_area ${FLOORAREA};
         gas_enduses ${GASENDUSES};
         heating_setpoint ${HEATINGSETPOINT};
         cooling_setpoint ${COOLINGSETPOINT};
         heating_system_type "HEAT_PUMP";
         cooling_system_type "HEAT_PUMP";
    };

    object house:..${NHOUSES_GAS} 
    {
         thermal_integrity_level ${THERMALINTEGRITYLEVEL};
         floor_area ${FLOORAREA};
         gas_enduses ${GASENDUSES};
         heating_setpoint ${HEATINGSETPOINT};
         cooling_setpoint ${COOLINGSETPOINT};
         heating_system_type "NONE";
         cooling_system_type "ELECTRIC";
    };

    nominal_voltage 120V;
    phases S${PHASE};
    measured_energy_delta_timestep 3600s;
    object recorder
    {
        property "measured_real_energy_delta";
        file phase_${PHASE}.csv;
        interval 3600s;
    };
}
#done

