#ifexist config.csv
#input "config.csv" -f config -t config
#endif


module powerflow
{
	solver_method NR;
	violation_record ${modelname/.glm}_violations.csv;
}



module ica_analysis; 